AEF_SITE_RIO_BRANCO_USER=HONMC30461
AEF_SITE_RIO_BRANCO_PASS=hondaWml2022@$
AEF_SITE_RIO_BRANCO_CODIGO=201

AEF_SITE_LOBO_USER=HONMC30462
AEF_SITE_LOBO_PASS=Lobomotos@2022#
AEF_SITE_LOBO_CODIGO=22

AEF_SITE_CASTRO_USER=HONMC30450
AEF_SITE_CASTRO_PASS=Tibagi@castro22
AEF_SITE_CASTRO_CODIGO=143-1

AEF_SITE_TELEMACO_USER=HONMC30451
AEF_SITE_TELEMACO_PASS=Telemaco@2022#
AEF_SITE_TELEMACO_CODIGO=143-2

AEF_SITE_MOTOACAO_USER=HONMC30473
AEF_SITE_MOTOACAO_PASS=Motoacao@2022#
AEF_SITE_MOTOACAO_CODIGO=3
